Version 4.1
SHEET 1 880 680
WIRE 80 0 16 0
WIRE 240 0 160 0
WIRE 240 64 240 0
WIRE -176 128 -176 -96
WIRE -64 128 -176 128
WIRE 16 128 16 0
WIRE 80 128 16 128
WIRE 240 144 240 64
WIRE 240 144 144 144
WIRE 320 144 240 144
WIRE 464 144 400 144
WIRE 512 144 464 144
WIRE 640 144 592 144
WIRE 80 160 48 160
WIRE 48 176 48 160
WIRE 640 224 640 144
WIRE 320 256 256 256
WIRE 464 256 464 144
WIRE 464 256 400 256
WIRE 496 256 464 256
WIRE 640 272 640 224
WIRE 640 272 560 272
WIRE 256 288 256 256
WIRE 496 288 464 288
WIRE 464 336 464 288
FLAG 112 176 -5v
FLAG 112 112 +5v
FLAG 48 176 0
FLAG 240 64 2
FLAG 528 304 -5v
FLAG 528 240 +5v
FLAG 464 336 0
FLAG 256 176 +5v
FLAG 256 368 -5v
FLAG 640 224 offset
SYMBOL OpAmps\\LT1818 112 144 R0
SYMATTR InstName U1
SYMBOL res 176 -16 R90
WINDOW 0 0 56 VBottom 2
WINDOW 3 32 56 VTop 2
SYMATTR InstName R1
SYMATTR Value 5k
SYMBOL res 32 112 R90
WINDOW 0 0 56 VBottom 2
WINDOW 3 32 56 VTop 2
SYMATTR InstName R2
SYMATTR Value 5k
SYMBOL OpAmps\\LT1818 528 272 R0
SYMATTR InstName U2
SYMBOL res 608 128 R90
WINDOW 0 0 56 VBottom 2
WINDOW 3 32 56 VTop 2
SYMATTR InstName R3
SYMATTR Value 10k
SYMBOL res 416 128 R90
WINDOW 0 0 56 VBottom 2
WINDOW 3 32 56 VTop 2
SYMATTR InstName R4
SYMATTR Value 10k
SYMBOL res 304 272 R270
WINDOW 0 32 56 VTop 2
WINDOW 3 0 56 VBottom 2
SYMATTR InstName R5
SYMATTR Value 10k
SYMBOL res 240 160 R0
SYMATTR InstName R6
SYMATTR Value 5k
SYMBOL res 240 272 R0
SYMATTR InstName R7
SYMATTR Value 5k
TEXT -584 272 Left 2 ;R25 und R26 sind Poti der Zwischen +- 5V ein Spannungsteiler erzeugt
TEXT -160 -72 Left 2 ;Drehschalter jeder Frequenzform auf diese Amplitudenverst‰rkung/ Offset
