Version 4.1
SHEET 1 2772 1300
WIRE 944 -96 896 -96
WIRE 1072 -96 1024 -96
WIRE 304 -48 240 -48
WIRE 464 -48 384 -48
WIRE 624 -48 608 -48
WIRE 768 -48 704 -48
WIRE 2048 -32 2032 -32
WIRE 896 -16 896 -96
WIRE 960 -16 896 -16
WIRE 1072 -16 1072 -96
WIRE 1072 -16 1024 -16
WIRE 1440 0 1408 0
WIRE 1600 0 1520 0
WIRE 464 16 464 -48
WIRE 768 16 768 -48
WIRE 2032 48 2032 -32
WIRE 2048 48 2032 48
WIRE 2128 48 2128 -32
WIRE 2128 48 2112 48
WIRE 160 80 80 80
WIRE 240 80 240 -48
WIRE 304 80 240 80
WIRE 80 96 80 80
WIRE 464 96 464 16
WIRE 464 96 368 96
WIRE 512 96 464 96
WIRE 608 96 608 -48
WIRE 608 96 592 96
WIRE 624 96 608 96
WIRE 304 112 272 112
WIRE 768 112 768 16
WIRE 768 112 688 112
WIRE 896 112 896 -16
WIRE 896 112 848 112
WIRE 928 112 896 112
WIRE 272 128 272 112
WIRE 624 128 592 128
WIRE 1072 128 1072 -16
WIRE 1072 128 992 128
WIRE 1088 128 1072 128
WIRE 1168 128 1152 128
WIRE 1296 128 1168 128
WIRE 1408 128 1408 0
WIRE 1408 128 1376 128
WIRE 1440 128 1408 128
WIRE 592 144 592 128
WIRE 928 144 896 144
WIRE 1600 144 1600 0
WIRE 1600 144 1504 144
WIRE 1680 144 1600 144
WIRE 1728 144 1680 144
WIRE 1440 160 1408 160
WIRE 1840 160 1792 160
WIRE 1904 160 1840 160
WIRE 2032 160 2032 48
WIRE 2032 160 1984 160
WIRE 2048 160 2032 160
WIRE -64 176 -64 160
WIRE -64 176 -128 176
WIRE 1408 176 1408 160
WIRE 1728 176 1648 176
WIRE 2128 176 2128 48
WIRE 2128 176 2112 176
WIRE 2176 176 2176 128
WIRE 2176 176 2128 176
WIRE 2224 176 2176 176
WIRE -128 192 -128 176
WIRE -64 192 -64 176
WIRE 896 192 896 144
WIRE 2048 192 2016 192
WIRE 464 208 464 96
WIRE 544 208 464 208
WIRE 1168 224 1168 208
WIRE 2016 224 2016 192
WIRE 1904 256 1904 160
WIRE 1984 256 1984 160
WIRE 1984 256 1968 256
WIRE 896 480 832 480
WIRE 1056 480 976 480
WIRE 1056 544 1056 480
WIRE 752 608 640 608
WIRE 832 608 832 480
WIRE 896 608 832 608
WIRE 1056 624 1056 544
WIRE 1056 624 960 624
WIRE 1136 624 1056 624
WIRE 1280 624 1216 624
WIRE 1328 624 1280 624
WIRE 1456 624 1408 624
WIRE 896 640 864 640
WIRE 864 656 864 640
WIRE 1456 704 1456 624
WIRE 1136 736 1072 736
WIRE 1280 736 1280 624
WIRE 1280 736 1216 736
WIRE 1312 736 1280 736
WIRE 1456 752 1456 704
WIRE 1456 752 1376 752
WIRE 1072 768 1072 736
WIRE 1312 768 1280 768
WIRE 1280 816 1280 768
FLAG 80 176 0
FLAG -128 192 0
FLAG -64 80 +5v
FLAG -64 272 -5v
FLAG 336 128 -5v
FLAG 336 64 +5v
FLAG 272 128 0
FLAG 592 144 0
FLAG 656 144 +5v
FLAG 656 80 -5v
FLAG 960 160 -5v
FLAG 960 96 +5v
FLAG 896 192 0
FLAG 1648 256 0
FLAG 1760 128 +5v
FLAG 1760 192 -5v
FLAG 1680 144 Dreieck
FLAG 1840 160 PWM
FLAG 768 16 Rechteck
FLAG 464 16 Sinus
FLAG 1168 224 0
FLAG 1472 176 -5v
FLAG 1472 112 +5v
FLAG 2016 224 0
FLAG 2080 144 +5v
FLAG 2080 208 -5v
FLAG 2176 128 Sägezahn
FLAG 928 656 -5v
FLAG 928 592 +5v
FLAG 864 656 0
FLAG 1056 544 2
FLAG 1344 784 -5v
FLAG 1344 720 +5v
FLAG 1280 816 0
FLAG 1072 656 +5v
FLAG 1072 848 -5v
FLAG 1456 704 offset
FLAG 1408 176 0
SYMBOL voltage 80 80 R0
WINDOW 123 0 0 Left 0
WINDOW 39 0 0 Left 0
SYMATTR InstName V1
SYMATTR Value SINE(0 1 10000)
SYMBOL voltage -64 64 R0
WINDOW 123 0 0 Left 0
WINDOW 39 0 0 Left 0
SYMATTR InstName V2
SYMATTR Value 5
SYMBOL voltage -64 176 R0
WINDOW 123 0 0 Left 0
WINDOW 39 0 0 Left 0
SYMATTR InstName V3
SYMATTR Value 5
SYMBOL OpAmps\\LT1818 336 96 R0
SYMATTR InstName U1
SYMBOL res 400 -64 R90
WINDOW 0 0 56 VBottom 2
WINDOW 3 32 56 VTop 2
SYMATTR InstName R1
SYMATTR Value 20k
SYMBOL res 256 64 R90
WINDOW 0 0 56 VBottom 2
WINDOW 3 32 56 VTop 2
SYMATTR InstName 10k
SYMATTR Value 10k
SYMBOL OpAmps\\LT1818 656 112 M180
SYMATTR InstName U2
SYMBOL res 720 -64 R90
WINDOW 0 0 56 VBottom 2
WINDOW 3 32 56 VTop 2
SYMATTR InstName R2
SYMATTR Value 190k
SYMBOL res 608 80 R90
WINDOW 0 0 56 VBottom 2
WINDOW 3 32 56 VTop 2
SYMATTR InstName R3
SYMATTR Value 10k
SYMBOL cap 1024 -32 R90
WINDOW 0 0 32 VBottom 2
WINDOW 3 32 32 VTop 2
SYMATTR InstName C1
SYMATTR Value 1n
SYMBOL res 864 96 R90
WINDOW 0 0 56 VBottom 2
WINDOW 3 32 56 VTop 2
SYMATTR InstName R4
SYMATTR Value 62k
SYMBOL res 1040 -112 R90
WINDOW 0 0 56 VBottom 2
WINDOW 3 32 56 VTop 2
SYMATTR InstName R5
SYMATTR Value 1Meg
SYMBOL OpAmps\\LT1818 960 128 R0
SYMATTR InstName U3
SYMBOL OpAmps\\LT1818 1760 160 R0
SYMATTR InstName U4
SYMBOL voltage 1648 160 R0
WINDOW 123 0 0 Left 0
WINDOW 39 0 0 Left 0
SYMATTR InstName V4
SYMATTR Value 0.5
SYMBOL cap 1152 112 R90
WINDOW 0 0 32 VBottom 2
WINDOW 3 32 32 VTop 2
SYMATTR InstName C2
SYMATTR Value 100n
SYMBOL res 1152 112 R0
SYMATTR InstName R6
SYMATTR Value 100k
SYMBOL OpAmps\\LT1818 1472 144 R0
SYMATTR InstName U5
SYMBOL lib\\sym\\OpAmps\\LT1819 2080 176 R0
SYMATTR InstName U9
SYMBOL res 2000 144 R90
WINDOW 0 0 56 VBottom 2
WINDOW 3 32 56 VTop 2
SYMATTR InstName R17
SYMATTR Value 3.9K
SYMBOL cap 2112 32 R90
WINDOW 0 0 32 VBottom 2
WINDOW 3 32 32 VTop 2
SYMATTR InstName C5
SYMATTR Value 10n
SYMBOL res 2144 -48 R90
WINDOW 0 0 56 VBottom 2
WINDOW 3 32 56 VTop 2
SYMATTR InstName R19
SYMATTR Value 1Meg
SYMBOL diode 1904 272 R270
WINDOW 0 32 32 VTop 2
WINDOW 3 0 32 VBottom 2
SYMATTR InstName D1
SYMATTR Value 1N4148
SYMBOL OpAmps\\LT1818 928 624 R0
SYMATTR InstName U8
SYMBOL res 992 464 R90
WINDOW 0 0 56 VBottom 2
WINDOW 3 32 56 VTop 2
SYMATTR InstName R14
SYMATTR Value 5k
SYMBOL res 848 592 R90
WINDOW 0 0 56 VBottom 2
WINDOW 3 32 56 VTop 2
SYMATTR InstName R15
SYMATTR Value 10k
SYMBOL OpAmps\\LT1818 1344 752 R0
SYMATTR InstName U11
SYMBOL res 1424 608 R90
WINDOW 0 0 56 VBottom 2
WINDOW 3 32 56 VTop 2
SYMATTR InstName R16
SYMATTR Value 10k
SYMBOL res 1232 608 R90
WINDOW 0 0 56 VBottom 2
WINDOW 3 32 56 VTop 2
SYMATTR InstName R23
SYMATTR Value 10k
SYMBOL res 1120 752 R270
WINDOW 0 32 56 VTop 2
WINDOW 3 0 56 VBottom 2
SYMATTR InstName R24
SYMATTR Value 10k
SYMBOL res 1056 640 R0
SYMATTR InstName R25
SYMATTR Value 5k
SYMBOL res 1056 752 R0
SYMATTR InstName R26
SYMATTR Value 5k
SYMBOL res 1536 -16 R90
WINDOW 0 0 56 VBottom 2
WINDOW 3 32 56 VTop 2
SYMATTR InstName R7
SYMATTR Value 10k
SYMBOL res 1392 112 R90
WINDOW 0 0 56 VBottom 2
WINDOW 3 32 56 VTop 2
SYMATTR InstName R8
SYMATTR Value 5k
TEXT -144 360 Left 2 !.tran 0 20m 0 1u startup
