Version 4.1
SHEET 1 2076 948
WIRE 944 -96 896 -96
WIRE 1072 -96 1024 -96
WIRE 304 -48 240 -48
WIRE 464 -48 384 -48
WIRE 624 -48 608 -48
WIRE 768 -48 704 -48
WIRE 896 -16 896 -96
WIRE 960 -16 896 -16
WIRE 1072 -16 1072 -96
WIRE 1072 -16 1024 -16
WIRE 464 16 464 -48
WIRE 768 16 768 -48
WIRE 1408 16 1264 16
WIRE 160 80 80 80
WIRE 240 80 240 -48
WIRE 304 80 240 80
WIRE 80 96 80 80
WIRE 464 96 464 16
WIRE 464 96 368 96
WIRE 512 96 464 96
WIRE 608 96 608 -48
WIRE 608 96 592 96
WIRE 624 96 608 96
WIRE 1264 96 1264 16
WIRE 1296 96 1264 96
WIRE 304 112 272 112
WIRE 768 112 768 16
WIRE 768 112 688 112
WIRE 896 112 896 -16
WIRE 896 112 848 112
WIRE 928 112 896 112
WIRE 1408 112 1408 16
WIRE 1408 112 1360 112
WIRE 1504 112 1408 112
WIRE 1552 112 1504 112
WIRE 272 128 272 112
WIRE 624 128 592 128
WIRE 1072 128 1072 -16
WIRE 1072 128 992 128
WIRE 1120 128 1072 128
WIRE 1200 128 1184 128
WIRE 1296 128 1200 128
WIRE 1664 128 1616 128
WIRE 592 144 592 128
WIRE 928 144 896 144
WIRE 1552 144 1472 144
WIRE -64 176 -64 160
WIRE -64 176 -128 176
WIRE -128 192 -128 176
WIRE -64 192 -64 176
WIRE 896 192 896 144
WIRE 464 208 464 96
WIRE 544 208 464 208
WIRE 1200 224 1200 208
WIRE 688 496 624 496
WIRE 848 496 768 496
WIRE 848 560 848 496
WIRE 544 624 544 208
WIRE 624 624 624 496
WIRE 688 624 624 624
WIRE 848 640 848 560
WIRE 848 640 752 640
WIRE 928 640 848 640
WIRE 1072 640 1008 640
WIRE 1120 640 1072 640
WIRE 1248 640 1200 640
WIRE 688 656 656 656
WIRE 656 672 656 656
WIRE 1248 720 1248 640
WIRE 928 752 864 752
WIRE 1072 752 1072 640
WIRE 1072 752 1008 752
WIRE 1104 752 1072 752
WIRE 1248 768 1248 720
WIRE 1248 768 1168 768
WIRE 864 784 864 752
WIRE 1104 784 1072 784
WIRE 1072 832 1072 784
FLAG 80 176 0
FLAG -128 192 0
FLAG -64 80 +5v
FLAG -64 272 -5v
FLAG 336 128 -5v
FLAG 336 64 +5v
FLAG 272 128 0
FLAG 592 144 0
FLAG 656 144 +5v
FLAG 656 80 -5v
FLAG 960 160 -5v
FLAG 960 96 +5v
FLAG 896 192 0
FLAG 1472 224 0
FLAG 1584 96 +5v
FLAG 1584 160 -5v
FLAG 1504 112 Dreieck
FLAG 1664 128 PWM
FLAG 768 16 Rechteck
FLAG 464 16 Sinus
FLAG 1200 224 0
FLAG 1328 144 -5v
FLAG 1328 80 +5v
FLAG 720 672 -5v
FLAG 720 608 +5v
FLAG 656 672 0
FLAG 848 560 2
FLAG 1136 800 -5v
FLAG 1136 736 +5v
FLAG 1072 832 0
FLAG 864 672 +5v
FLAG 864 864 -5v
FLAG 1248 720 offset
SYMBOL voltage 80 80 R0
WINDOW 123 0 0 Left 0
WINDOW 39 0 0 Left 0
SYMATTR InstName V1
SYMATTR Value SINE(0 1 10000)
SYMBOL voltage -64 64 R0
WINDOW 123 0 0 Left 0
WINDOW 39 0 0 Left 0
SYMATTR InstName V2
SYMATTR Value 5
SYMBOL voltage -64 176 R0
WINDOW 123 0 0 Left 0
WINDOW 39 0 0 Left 0
SYMATTR InstName V3
SYMATTR Value 5
SYMBOL OpAmps\\LT1818 336 96 R0
SYMATTR InstName U1
SYMBOL res 400 -64 R90
WINDOW 0 0 56 VBottom 2
WINDOW 3 32 56 VTop 2
SYMATTR InstName R1
SYMATTR Value 20k
SYMBOL res 256 64 R90
WINDOW 0 0 56 VBottom 2
WINDOW 3 32 56 VTop 2
SYMATTR InstName 10k
SYMATTR Value 10k
SYMBOL OpAmps\\LT1818 656 112 M180
SYMATTR InstName U2
SYMBOL res 720 -64 R90
WINDOW 0 0 56 VBottom 2
WINDOW 3 32 56 VTop 2
SYMATTR InstName R2
SYMATTR Value 190k
SYMBOL res 608 80 R90
WINDOW 0 0 56 VBottom 2
WINDOW 3 32 56 VTop 2
SYMATTR InstName R3
SYMATTR Value 10k
SYMBOL cap 1024 -32 R90
WINDOW 0 0 32 VBottom 2
WINDOW 3 32 32 VTop 2
SYMATTR InstName C1
SYMATTR Value 1n
SYMBOL res 864 96 R90
WINDOW 0 0 56 VBottom 2
WINDOW 3 32 56 VTop 2
SYMATTR InstName R4
SYMATTR Value 62k
SYMBOL res 1040 -112 R90
WINDOW 0 0 56 VBottom 2
WINDOW 3 32 56 VTop 2
SYMATTR InstName R5
SYMATTR Value 1Meg
SYMBOL OpAmps\\LT1818 960 128 R0
SYMATTR InstName U3
SYMBOL OpAmps\\LT1818 1584 128 R0
SYMATTR InstName U4
SYMBOL voltage 1472 128 R0
WINDOW 123 0 0 Left 0
WINDOW 39 0 0 Left 0
SYMATTR InstName V4
SYMATTR Value 1
SYMBOL cap 1184 112 R90
WINDOW 0 0 32 VBottom 2
WINDOW 3 32 32 VTop 2
SYMATTR InstName C2
SYMATTR Value 10n
SYMBOL res 1184 112 R0
SYMATTR InstName R6
SYMATTR Value 10k
SYMBOL OpAmps\\LT1818 1328 112 R0
SYMATTR InstName U5
SYMBOL OpAmps\\LT1818 720 640 R0
SYMATTR InstName U6
SYMBOL res 784 480 R90
WINDOW 0 0 56 VBottom 2
WINDOW 3 32 56 VTop 2
SYMATTR InstName R7
SYMATTR Value 5k
SYMBOL res 640 608 R90
WINDOW 0 0 56 VBottom 2
WINDOW 3 32 56 VTop 2
SYMATTR InstName R8
SYMATTR Value 10k
SYMBOL OpAmps\\LT1818 1136 768 R0
SYMATTR InstName U7
SYMBOL res 1216 624 R90
WINDOW 0 0 56 VBottom 2
WINDOW 3 32 56 VTop 2
SYMATTR InstName R9
SYMATTR Value 10k
SYMBOL res 1024 624 R90
WINDOW 0 0 56 VBottom 2
WINDOW 3 32 56 VTop 2
SYMATTR InstName R10
SYMATTR Value 10k
SYMBOL res 912 768 R270
WINDOW 0 32 56 VTop 2
WINDOW 3 0 56 VBottom 2
SYMATTR InstName R11
SYMATTR Value 10k
SYMBOL res 848 656 R0
SYMATTR InstName R12
SYMATTR Value 5k
SYMBOL res 848 768 R0
SYMATTR InstName R13
SYMATTR Value 10k
TEXT -144 360 Left 2 !.tran 0 20m 0 1u startup
