Version 4.1
SHEET 1 2440 1268
WIRE 944 -96 896 -96
WIRE 1072 -96 1024 -96
WIRE 1936 -80 1888 -80
WIRE 2064 -80 2016 -80
WIRE 304 -48 240 -48
WIRE 464 -48 384 -48
WIRE 624 -48 608 -48
WIRE 768 -48 704 -48
WIRE 896 -16 896 -96
WIRE 960 -16 896 -16
WIRE 1072 -16 1072 -96
WIRE 1072 -16 1024 -16
WIRE 1888 0 1888 -80
WIRE 1952 0 1888 0
WIRE 2064 0 2064 -80
WIRE 2064 0 2016 0
WIRE 464 16 464 -48
WIRE 768 16 768 -48
WIRE 1408 16 1264 16
WIRE 160 80 80 80
WIRE 240 80 240 -48
WIRE 304 80 240 80
WIRE 80 96 80 80
WIRE 464 96 464 16
WIRE 464 96 368 96
WIRE 512 96 464 96
WIRE 608 96 608 -48
WIRE 608 96 592 96
WIRE 624 96 608 96
WIRE 1264 96 1264 16
WIRE 1296 96 1264 96
WIRE 304 112 272 112
WIRE 768 112 768 16
WIRE 768 112 688 112
WIRE 896 112 896 -16
WIRE 896 112 848 112
WIRE 928 112 896 112
WIRE 1408 112 1408 16
WIRE 1408 112 1360 112
WIRE 1504 112 1408 112
WIRE 1552 112 1504 112
WIRE 272 128 272 112
WIRE 624 128 592 128
WIRE 1072 128 1072 -16
WIRE 1072 128 992 128
WIRE 1120 128 1072 128
WIRE 1200 128 1184 128
WIRE 1296 128 1200 128
WIRE 1664 128 1616 128
WIRE 1760 128 1664 128
WIRE 1888 128 1888 0
WIRE 1888 128 1840 128
WIRE 1920 128 1888 128
WIRE 592 144 592 128
WIRE 928 144 896 144
WIRE 1552 144 1472 144
WIRE 2064 144 2064 0
WIRE 2064 144 1984 144
WIRE 2112 144 2064 144
WIRE 2192 144 2176 144
WIRE 1920 160 1888 160
WIRE -64 176 -64 160
WIRE -64 176 -128 176
WIRE -128 192 -128 176
WIRE -64 192 -64 176
WIRE 896 192 896 144
WIRE 464 208 464 96
WIRE 544 208 464 208
WIRE 1888 208 1888 160
WIRE 960 224 944 224
WIRE 1200 224 1200 208
WIRE 2192 240 2192 224
WIRE 944 304 944 224
WIRE 960 304 944 304
WIRE 1040 304 1040 224
WIRE 1040 304 1024 304
WIRE 768 416 768 112
WIRE 816 416 768 416
WIRE 944 416 944 304
WIRE 944 416 896 416
WIRE 960 416 944 416
WIRE 1040 432 1040 304
WIRE 1040 432 1024 432
WIRE 1072 432 1040 432
WIRE 960 448 928 448
WIRE 928 480 928 448
WIRE 816 512 816 416
WIRE 896 512 896 416
WIRE 896 512 880 512
WIRE 688 816 624 816
WIRE 848 816 768 816
WIRE 848 880 848 816
WIRE 544 944 544 208
WIRE 624 944 624 816
WIRE 688 944 624 944
WIRE 848 960 848 880
WIRE 848 960 752 960
WIRE 928 960 848 960
WIRE 1072 960 1008 960
WIRE 1120 960 1072 960
WIRE 1248 960 1200 960
WIRE 688 976 656 976
WIRE 656 992 656 976
WIRE 1248 1040 1248 960
WIRE 928 1072 864 1072
WIRE 1072 1072 1072 960
WIRE 1072 1072 1008 1072
WIRE 1104 1072 1072 1072
WIRE 1248 1088 1248 1040
WIRE 1248 1088 1168 1088
WIRE 864 1104 864 1072
WIRE 1104 1104 1072 1104
WIRE 1072 1152 1072 1104
FLAG 80 176 0
FLAG -128 192 0
FLAG -64 80 +5v
FLAG -64 272 -5v
FLAG 336 128 -5v
FLAG 336 64 +5v
FLAG 272 128 0
FLAG 592 144 0
FLAG 656 144 +5v
FLAG 656 80 -5v
FLAG 960 160 -5v
FLAG 960 96 +5v
FLAG 896 192 0
FLAG 1472 224 0
FLAG 1584 96 +5v
FLAG 1584 160 -5v
FLAG 1504 112 Dreieck
FLAG 1664 128 PWM
FLAG 768 16 Rechteck
FLAG 464 16 Sinus
FLAG 1200 224 0
FLAG 1328 144 -5v
FLAG 1328 80 +5v
FLAG 720 992 -5v
FLAG 720 928 +5v
FLAG 656 992 0
FLAG 848 880 2
FLAG 1136 1120 -5v
FLAG 1136 1056 +5v
FLAG 1072 1152 0
FLAG 864 992 +5v
FLAG 864 1184 -5v
FLAG 1248 1040 offset
FLAG 1952 176 -5v
FLAG 1952 112 +5v
FLAG 1888 208 0
FLAG 2192 240 0
FLAG 928 480 0
FLAG 992 400 +5v
FLAG 992 464 -5v
SYMBOL voltage 80 80 R0
WINDOW 123 0 0 Left 0
WINDOW 39 0 0 Left 0
SYMATTR InstName V1
SYMATTR Value SINE(0 1 10000)
SYMBOL voltage -64 64 R0
WINDOW 123 0 0 Left 0
WINDOW 39 0 0 Left 0
SYMATTR InstName V2
SYMATTR Value 5
SYMBOL voltage -64 176 R0
WINDOW 123 0 0 Left 0
WINDOW 39 0 0 Left 0
SYMATTR InstName V3
SYMATTR Value 5
SYMBOL OpAmps\\LT1818 336 96 R0
SYMATTR InstName U1
SYMBOL res 400 -64 R90
WINDOW 0 0 56 VBottom 2
WINDOW 3 32 56 VTop 2
SYMATTR InstName R1
SYMATTR Value 20k
SYMBOL res 256 64 R90
WINDOW 0 0 56 VBottom 2
WINDOW 3 32 56 VTop 2
SYMATTR InstName 10k
SYMATTR Value 10k
SYMBOL OpAmps\\LT1818 656 112 M180
SYMATTR InstName U2
SYMBOL res 720 -64 R90
WINDOW 0 0 56 VBottom 2
WINDOW 3 32 56 VTop 2
SYMATTR InstName R2
SYMATTR Value 190k
SYMBOL res 608 80 R90
WINDOW 0 0 56 VBottom 2
WINDOW 3 32 56 VTop 2
SYMATTR InstName R3
SYMATTR Value 10k
SYMBOL cap 1024 -32 R90
WINDOW 0 0 32 VBottom 2
WINDOW 3 32 32 VTop 2
SYMATTR InstName C1
SYMATTR Value 1n
SYMBOL res 864 96 R90
WINDOW 0 0 56 VBottom 2
WINDOW 3 32 56 VTop 2
SYMATTR InstName R4
SYMATTR Value 62k
SYMBOL res 1040 -112 R90
WINDOW 0 0 56 VBottom 2
WINDOW 3 32 56 VTop 2
SYMATTR InstName R5
SYMATTR Value 1Meg
SYMBOL OpAmps\\LT1818 960 128 R0
SYMATTR InstName U3
SYMBOL OpAmps\\LT1818 1584 128 R0
SYMATTR InstName U4
SYMBOL voltage 1472 128 R0
WINDOW 123 0 0 Left 0
WINDOW 39 0 0 Left 0
SYMATTR InstName V4
SYMATTR Value 1
SYMBOL cap 1184 112 R90
WINDOW 0 0 32 VBottom 2
WINDOW 3 32 32 VTop 2
SYMATTR InstName C2
SYMATTR Value 10n
SYMBOL res 1184 112 R0
SYMATTR InstName R6
SYMATTR Value 10k
SYMBOL OpAmps\\LT1818 1328 112 R0
SYMATTR InstName U5
SYMBOL OpAmps\\LT1818 720 960 R0
SYMATTR InstName U6
SYMBOL res 784 800 R90
WINDOW 0 0 56 VBottom 2
WINDOW 3 32 56 VTop 2
SYMATTR InstName R7
SYMATTR Value 5k
SYMBOL res 640 928 R90
WINDOW 0 0 56 VBottom 2
WINDOW 3 32 56 VTop 2
SYMATTR InstName R8
SYMATTR Value 10k
SYMBOL OpAmps\\LT1818 1136 1088 R0
SYMATTR InstName U7
SYMBOL res 1216 944 R90
WINDOW 0 0 56 VBottom 2
WINDOW 3 32 56 VTop 2
SYMATTR InstName R9
SYMATTR Value 10k
SYMBOL res 1024 944 R90
WINDOW 0 0 56 VBottom 2
WINDOW 3 32 56 VTop 2
SYMATTR InstName R10
SYMATTR Value 10k
SYMBOL res 912 1088 R270
WINDOW 0 32 56 VTop 2
WINDOW 3 0 56 VBottom 2
SYMATTR InstName R11
SYMATTR Value 10k
SYMBOL res 848 976 R0
SYMATTR InstName R12
SYMATTR Value 5k
SYMBOL res 848 1088 R0
SYMATTR InstName R13
SYMATTR Value 10k
SYMBOL cap 2016 -16 R90
WINDOW 0 0 32 VBottom 2
WINDOW 3 32 32 VTop 2
SYMATTR InstName C3
SYMATTR Value 1n
SYMBOL res 2032 -96 R90
WINDOW 0 0 56 VBottom 2
WINDOW 3 32 56 VTop 2
SYMATTR InstName R14
SYMATTR Value 1Meg
SYMBOL OpAmps\\LT1818 1952 144 R0
SYMATTR InstName U8
SYMBOL cap 2176 128 R90
WINDOW 0 0 32 VBottom 2
WINDOW 3 32 32 VTop 2
SYMATTR InstName C4
SYMATTR Value 10n
SYMBOL res 2176 128 R0
SYMATTR InstName R15
SYMATTR Value 10k
SYMBOL res 1744 144 R270
WINDOW 0 32 56 VTop 2
WINDOW 3 0 56 VBottom 2
SYMATTR InstName R16
SYMATTR Value 65k
SYMBOL lib\\sym\\OpAmps\\LT1819 992 432 R0
SYMATTR InstName U9
SYMBOL res 912 400 R90
WINDOW 0 0 56 VBottom 2
WINDOW 3 32 56 VTop 2
SYMATTR InstName R17
SYMATTR Value 4.7k
SYMBOL cap 1024 288 R90
WINDOW 0 0 32 VBottom 2
WINDOW 3 32 32 VTop 2
SYMATTR InstName C5
SYMATTR Value 10n
SYMBOL res 1056 208 R90
WINDOW 0 0 56 VBottom 2
WINDOW 3 32 56 VTop 2
SYMATTR InstName R19
SYMATTR Value 1Meg
SYMBOL diode 816 528 R270
WINDOW 0 32 32 VTop 2
WINDOW 3 0 32 VBottom 2
SYMATTR InstName D1
SYMATTR Value 1N4148
TEXT -144 360 Left 2 !.tran 0 20m 0 1u startup
