Version 4.1
SHEET 1 1572 680
WIRE 976 -176 848 -176
WIRE 1184 -176 1040 -176
WIRE 848 -32 848 -176
WIRE 848 -32 736 -32
WIRE 880 -32 848 -32
WIRE 1184 -32 1184 -176
WIRE 1184 -32 1136 -32
WIRE 1296 -32 1184 -32
WIRE 1408 -32 1296 -32
WIRE 608 32 304 32
WIRE 1184 32 1184 -32
WIRE 1296 32 1296 -32
WIRE 1408 32 1408 -32
WIRE 112 64 -16 64
WIRE 208 64 112 64
WIRE 368 64 208 64
WIRE 544 64 368 64
WIRE 656 64 544 64
WIRE 736 64 736 -32
WIRE 736 64 656 64
WIRE 656 80 656 64
WIRE 736 80 736 64
WIRE -16 112 -16 64
WIRE 480 112 448 112
WIRE 368 128 368 64
WIRE 304 144 304 32
WIRE 336 144 304 144
WIRE 448 160 448 112
WIRE 448 160 400 160
WIRE 208 176 208 144
WIRE 336 176 208 176
WIRE 544 176 544 160
WIRE 608 176 608 32
WIRE 608 176 544 176
WIRE 656 176 656 144
WIRE 656 176 608 176
WIRE 736 176 736 144
WIRE 736 176 656 176
WIRE 800 176 736 176
WIRE 544 192 544 176
WIRE 1008 192 1008 64
WIRE 1008 192 944 192
WIRE 1184 192 1184 96
WIRE 1184 192 1008 192
WIRE 1296 192 1296 96
WIRE 1296 192 1184 192
WIRE 1408 192 1408 96
WIRE 1408 192 1296 192
WIRE 208 208 208 176
WIRE 656 208 656 176
WIRE 736 208 736 176
WIRE 944 208 944 192
WIRE 800 224 800 176
WIRE 448 240 448 160
WIRE 480 240 448 240
WIRE 1184 272 1184 192
WIRE 1296 272 1296 192
WIRE 1408 272 1408 192
WIRE -16 288 -16 192
WIRE 112 288 -16 288
WIRE 208 288 112 288
WIRE 368 288 368 192
WIRE 368 288 208 288
WIRE 544 288 368 288
WIRE 656 288 656 272
WIRE 656 288 544 288
WIRE 736 288 736 272
WIRE 736 288 656 288
WIRE 1008 320 1008 192
WIRE 736 416 736 288
WIRE 848 416 736 416
WIRE 880 416 848 416
WIRE 1184 416 1184 336
WIRE 1184 416 1136 416
WIRE 1296 416 1296 336
WIRE 1296 416 1184 416
WIRE 1408 416 1408 336
WIRE 1408 416 1296 416
WIRE 848 576 848 416
WIRE 976 576 848 576
WIRE 1184 576 1184 416
WIRE 1184 576 1040 576
FLAG 800 224 0
FLAG 112 64 +7.5V
FLAG 112 288 -7.5V
FLAG 944 208 0
FLAG 1408 -32 +5V
FLAG 1408 416 -5V
SYMBOL voltage -16 96 R0
WINDOW 123 0 0 Left 0
WINDOW 39 0 0 Left 0
SYMATTR InstName V1
SYMATTR Value 15
SYMBOL res 192 48 R0
SYMATTR InstName R1
SYMATTR Value 47k
SYMBOL res 192 192 R0
SYMATTR InstName R2
SYMATTR Value 47k
SYMBOL lib\\sym\\npn 480 64 R0
SYMATTR InstName Q1
SYMATTR Value 2N2222
SYMBOL lib\\sym\\pnp 480 288 M180
SYMATTR InstName Q2
SYMATTR Value 2N2907
SYMBOL lib\\sym\\OpAmps\\LT1001 368 96 R0
SYMATTR InstName U2
SYMBOL cap 640 80 R0
SYMATTR InstName C2
SYMATTR Value 1Á
SYMBOL cap 640 208 R0
SYMATTR InstName C3
SYMATTR Value 1Á
SYMBOL cap 720 80 R0
SYMATTR InstName C1
SYMATTR Value 100n
SYMBOL cap 720 208 R0
SYMATTR InstName C4
SYMATTR Value 100n
SYMBOL 7805 1008 -32 R0
SYMATTR InstName U1
SYMBOL 7905 1008 416 M180
SYMATTR InstName U3
SYMBOL diode 1040 -192 R90
WINDOW 0 0 32 VBottom 2
WINDOW 3 32 32 VTop 2
SYMATTR InstName D1
SYMATTR Value 1N4007
SYMBOL diode 976 592 R270
WINDOW 0 32 32 VTop 2
WINDOW 3 0 32 VBottom 2
SYMATTR InstName D2
SYMATTR Value 1N4007
SYMBOL diode 1424 96 R180
WINDOW 0 24 64 Left 2
WINDOW 3 24 0 Left 2
SYMATTR InstName D3
SYMBOL diode 1424 336 R180
WINDOW 0 24 64 Left 2
WINDOW 3 24 0 Left 2
SYMATTR InstName D4
SYMBOL cap 1168 32 R0
SYMATTR InstName C5
SYMATTR Value 1Á
SYMBOL cap 1168 272 R0
SYMATTR InstName C6
SYMATTR Value 1Á
SYMBOL cap 1280 272 R0
SYMATTR InstName C7
SYMATTR Value 100n
SYMBOL cap 1280 32 R0
SYMATTR InstName C8
SYMATTR Value 100n
TEXT -8 480 Left 2 !.tran 100m
TEXT -8 536 Left 2 !.include regulators.lib
