Version 4.1
SHEET 1 1764 680
WIRE 32 -176 -32 -176
WIRE 96 -176 32 -176
WIRE 208 -176 176 -176
WIRE 336 -176 288 -176
WIRE 400 -176 336 -176
WIRE 544 -176 480 -176
WIRE 656 -176 624 -176
WIRE 768 -176 720 -176
WIRE -32 -160 -32 -176
WIRE 32 -64 32 -176
WIRE 112 -64 32 -64
WIRE 336 -64 336 -176
WIRE 336 -64 176 -64
WIRE -160 -16 -160 -64
WIRE 336 -16 336 -64
WIRE 544 -16 336 -16
WIRE 768 0 768 -176
WIRE 768 0 608 0
WIRE 800 0 768 0
WIRE 544 16 336 16
WIRE -160 96 -160 64
WIRE -160 96 -208 96
WIRE -160 112 -160 96
WIRE 96 112 32 112
WIRE 336 112 336 16
WIRE 336 112 176 112
WIRE 544 112 336 112
WIRE 768 112 768 0
WIRE 768 112 624 112
WIRE 768 128 768 112
WIRE 32 176 32 112
WIRE -160 224 -160 192
WIRE 224 224 80 224
WIRE 544 224 224 224
WIRE 688 224 624 224
WIRE 768 224 768 192
WIRE 768 224 688 224
WIRE 80 240 80 224
WIRE 32 336 32 272
WIRE 224 336 224 304
WIRE 688 336 688 288
FLAG -160 -64 V+
FLAG -160 224 V-
FLAG 576 -32 V-
FLAG 576 32 V+
FLAG 32 336 0
FLAG 224 336 0
FLAG 688 336 0
FLAG -208 96 0
FLAG -32 -160 0
FLAG 800 0 Sinus
IOPIN 800 0 BiDir
SYMBOL res 640 208 R90
WINDOW 0 0 56 VBottom 2
WINDOW 3 32 56 VTop 2
SYMATTR InstName R1
SYMATTR Value 16k
SYMBOL cap 176 -80 R90
WINDOW 0 0 32 VBottom 2
WINDOW 3 32 32 VTop 2
SYMATTR InstName C1
SYMATTR Value 6.8n
SYMBOL voltage -160 -32 R0
WINDOW 123 0 0 Left 0
WINDOW 39 0 0 Left 0
SYMATTR InstName V2
SYMATTR Value 5
SYMBOL voltage -160 96 R0
WINDOW 123 0 0 Left 0
WINDOW 39 0 0 Left 0
SYMATTR InstName V3
SYMATTR Value 5
SYMBOL cap 720 -192 R90
WINDOW 0 0 32 VBottom 2
WINDOW 3 32 32 VTop 2
SYMATTR InstName C2
SYMATTR Value 6.8n
SYMBOL cap 672 224 R0
SYMATTR InstName C3
SYMATTR Value 22µ
SYMBOL res 640 -192 R90
WINDOW 0 0 56 VBottom 2
WINDOW 3 32 56 VTop 2
SYMATTR InstName R2
SYMATTR Value 20k
SYMBOL res 192 -192 R90
WINDOW 0 0 56 VBottom 2
WINDOW 3 32 56 VTop 2
SYMATTR InstName R3
SYMATTR Value 2k2
SYMBOL res 192 96 R90
WINDOW 0 0 56 VBottom 2
WINDOW 3 16 66 VTop 2
SYMATTR InstName R4
SYMATTR Value 10k
SYMBOL res 240 320 R180
WINDOW 0 36 76 Left 2
WINDOW 3 36 40 Left 2
SYMATTR InstName R5
SYMATTR Value 10k
SYMBOL diode 784 192 R180
WINDOW 0 24 64 Left 2
WINDOW 3 24 0 Left 2
SYMATTR InstName D1
SYMATTR Value 1N4148
SYMBOL res 640 96 R90
WINDOW 0 0 56 VBottom 2
WINDOW 3 32 56 VTop 2
SYMATTR InstName R6
SYMATTR Value 20.5k
SYMBOL njf 80 176 M0
SYMATTR InstName J1
SYMATTR Value 2N3819
SYMBOL res 304 -192 R90
WINDOW 0 0 56 VBottom 2
WINDOW 3 32 56 VTop 2
SYMATTR InstName R7
SYMATTR Value 20k
SYMBOL res 496 -192 R90
WINDOW 0 0 56 VBottom 2
WINDOW 3 32 56 VTop 2
SYMATTR InstName R8
SYMATTR Value 2k2
SYMBOL OpAmps\\LT1818 576 0 M180
SYMATTR InstName U2
TEXT -224 360 Left 2 !.tran 0 1 0 1u startup
TEXT -312 -288 Left 2 ;R2 und R3 sollen als Doppel potenziometer eingestellt werden jedoch noch mit einem festwider stand von 2k2 damit keine 0 Ohm anliegen können
TEXT 368 416 Left 2 ;Hallo Marius
